/*--------------------------------*- C++ -*----------------------------------*\
| =========                 |                                                 |
| \\      /  F ield         | OpenFOAM: The Open Source CFD Toolbox           |
|  \\    /   O peration     | Version:  1.7.1                                 |
|   \\  /    A nd           | Web:      www.OpenFOAM.com                      |
|    \\/     M anipulation  |                                                 |
\*---------------------------------------------------------------------------*/
FoamFile
{
    version     2.0;
    format      ascii;
    class       dictionary;
    location    "system";
    object      sampleDict;
}
// * * * * * * * * * * * * * * * * * * * * * * * * * * * * * * * * * * * * * //

interpolationScheme cellPoint;

setFormat       raw;

surfaceFormat   raw;

sets
(
    GaugeVOF01
    {
        type    midPointAndFace;
        axis    xyz;
        start   ( 0.5 0.001 0 );
        end     ( 0.5 0.001 1 );
    } 
   GaugeVOF02
    {
        type    midPointAndFace;
        axis    xyz;
        start   ( 1.0 0.001 0 );
        end     ( 1.0 0.001 1 );
    }
   GaugeVOF03
    {
        type    midPointAndFace;
        axis    xyz;
        start   ( 1.5 0.001 0 );
        end     ( 1.5 0.001 1 );
    }
   GaugeVOF04
    {
        type    midPointAndFace;
        axis    xyz;
        start   ( 2.66 0.001 0 );
        end     ( 2.66 0.001 1 );
    }
);

surfaces        ();

fields          ( alpha1 );


// ************************************************************************* //
