/*--------------------------------*- C++ -*----------------------------------*\
| =========                 |                                                 |
| \\      /  F ield         | OpenFOAM: The Open Source CFD Toolbox           |
|  \\    /   O peration     | Version:  2.1.0                                 |
|   \\  /    A nd           | Web:      www.OpenFOAM.org                      |
|    \\/     M anipulation  |                                                 |
\*---------------------------------------------------------------------------*/
FoamFile
{
    version     2.0;
    format      ascii;
    class       dictionary;
    location    "constant";
    object      porosityDict;
}
// * * * * * * * * * * * * * * * * * * * * * * * * * * * * * * * * * * * * * //

// Materials: clear region, core, secondary armour layer, primary armour layer
a               4(0 50   50   50);
b               4(0 1.2  2.0  0.6);
c               4(0 0.34 0.34 0.34);

D50             4(1 0.01 0.035 0.12);
porosity        4(1 0.49 0.493 0.5);

// ************************************************************************* //
