/*---------------------------------------------------------------------------*\
| =========                 |                                                 |
| \\      /  F ield         | OpenFOAM: The Open Source CFD Toolbox           |
|  \\    /   O peration     | Version:  1.3                                   |
|   \\  /    A nd           | Web:      http://www.openfoam.org               |
|    \\/     M anipulation  |                                                 |
\*---------------------------------------------------------------------------*/
FoamFile
{
    version     2.0;
    format      ascii;
    class       dictionary;
    location    "constant";
    object      waveDict;
}
// * * * * * * * * * * * * * * * * * * * * * * * * * * * * * * * * * * * * * //

waveType        solitary;

waveTheory      Grimshaw;

genAbs          1;

absDir          180.0;

nPaddles        1;

waveHeight      0.10;

waveDir         180.0;

// Change both entries to true to re-read this dictionary upon restart.
rereadAlpha     false;
rereadU         false;

// ************************************************************************* //
