/*---------------------------------------------------------------------------*\
| =========                 |                                                 |
| \\      /  F ield         | OpenFOAM: The Open Source CFD Toolbox           |
|  \\    /   O peration     | Version:  1.3                                   |
|   \\  /    A nd           | Web:      http://www.openfoam.org               |
|    \\/     M anipulation  |                                                 |
\*---------------------------------------------------------------------------*/
FoamFile
{
    version     2.0;
    format      ascii;
    class       dictionary;
    location    "constant";
    object      waveDict;
}
// * * * * * * * * * * * * * * * * * * * * * * * * * * * * * * * * * * * * * //

waveType        regular;

waveTheory      streamFunction;

genAbs          1;

absDir          0.0;

nPaddles        1;

waveHeight      0.15;

wavePeriod      3.0;

waveLength      6.1192;

uMean           2.066;

waveDir         0.0;

wavePhase       1.57079633;

Bj
10
(
3.34597724342677e-01
9.48019396234917e-02
2.91072933827814e-02
8.61751593187870e-03
2.32329843006932e-03
5.28573485470919e-04
8.18209519394654e-05
3.72526179872130e-06
1.06212267301390e-05
4.28886431814986e-06
);

Ej
10
(
1.39482278495476e-01
7.78521474613940e-02
3.73865451083530e-02
1.72677832335741e-02
8.05213407362513e-03
3.86849611843551e-03
1.93817947235750e-03
1.03838614716518e-03
6.40862850188323e-04
5.28371436614487e-04
);




// ************************************************************************* //
