/*---------------------------------------------------------------------------*\
| =========                 |                                                 |
| \\      /  F ield         | OpenFOAM: The Open Source CFD Toolbox           |
|  \\    /   O peration     | Version:  1.3                                   |
|   \\  /    A nd           | Web:      http://www.openfoam.org               |
|    \\/     M anipulation  |                                                 |
\*---------------------------------------------------------------------------*/
FoamFile
{
    version     2.0;
    format      ascii;
    class       dictionary;
    location    "constant";
    object      waveDict;
}
// * * * * * * * * * * * * * * * * * * * * * * * * * * * * * * * * * * * * * //

waveType        wavemaker;

waveTheory      tveta;

genAbs          1;

absDir          0.0;

nPaddles        1;

timeSeries
2
(
0
100
);

paddleVelocity
2
(
0.2
0.2
);

paddleEta
2
(
0
0
);

// ************************************************************************* //
