/*--------------------------------*- C++ -*----------------------------------*\
| =========                 |                                                 |
| \\      /  F ield         | OpenFOAM: The Open Source CFD Toolbox           |
|  \\    /   O peration     | Version:  2.1.0                                 |
|   \\  /    A nd           | Web:      www.OpenFOAM.org                      |
|    \\/     M anipulation  |                                                 |
\*---------------------------------------------------------------------------*/
FoamFile
{
    version     2.0;
    format      ascii;
    class       dictionary;
    location    "constant";
    object      porosityDict;
}
// * * * * * * * * * * * * * * * * * * * * * * * * * * * * * * * * * * * * * //

a               6(0 1000 1000 1000 1000 1000);
b               6(0 0.8 0.8 0.8 0.8 0.8);
c               6(0 0.34 0.34 0.34 0.34 0.34);

D50             6(1 0.002 0.0072 0.0187 0.04 0.0123);
porosity        6(1 0.45 0.5 0.55 0.6 0.55);

debugPor        true;

useTransient    false;
KC              1.0;

// ************************************************************************* //
