/*--------------------------------*- C++ -*----------------------------------*\
| =========                 |                                                 |
| \\      /  F ield         | OpenFOAM: The Open Source CFD Toolbox           |
|  \\    /   O peration     | Version:  2.3.0                                 |
|   \\  /    A nd           | Web:      www.OpenFOAM.org                      |
|    \\/     M anipulation  |                                                 |
\*---------------------------------------------------------------------------*/
FoamFile
{
    version     2.0;
    format      ascii;
    class       dictionary;
    location    "system";
    object      fvSchemes;
}
// * * * * * * * * * * * * * * * * * * * * * * * * * * * * * * * * * * * * * //

ddtSchemes
{
    default         Euler;
}

gradSchemes
{
    default         Gauss linear;
}

divSchemes
{
    div(rhoPhi,U)  Gauss limitedLinearV 1;
    div(U)  Gauss linear;
    div((rhoPhi|interpolate(porosity)),U)  Gauss limitedLinearV 1;
    div(rhoPhiPor,UPor)  Gauss limitedLinearV 1;
    div(rhoPhi,UPor)  Gauss limitedLinearV 1;
    div(rhoPhiPor,U)   Gauss limitedLinearV 1; 
    div(phi,alpha)  Gauss vanLeer;
    div(phirb,alpha) Gauss interfaceCompression;
    div((muEff*dev(T(grad(U))))) Gauss linear;
    div(phi,k)      Gauss upwind;
    div(phi,epsilon) Gauss upwind;
    div((phi|interpolate(porosity)),k)      Gauss upwind;
    div((phi*interpolate(rho)),k)      Gauss upwind;
    div((phi|interpolate(porosity)),epsilon) Gauss upwind;
    div(phi,omega) Gauss upwind;
    div((phi|interpolate(porosity)),omega) Gauss upwind;
    div((phi*interpolate(rho)),omega) Gauss upwind;
    div((phi*interpolate(rho)),epsilon) Gauss upwind;
}

laplacianSchemes
{
    default         Gauss linear corrected;
}

interpolationSchemes
{
    default         linear;
}

snGradSchemes
{
    default         corrected;
}

fluxRequired
{
    default         no;
    p_rgh;
    pcorr;
    alpha.water;
}

wallDist
{
    method meshWave;
}


// ************************************************************************* //
