/*--------------------------------*- C++ -*----------------------------------*\
| =========                 |                                                 |
| \\      /  F ield         | OpenFOAM: The Open Source CFD Toolbox           |
|  \\    /   O peration     | Version:  2.1.0                                 |
|   \\  /    A nd           | Web:      www.OpenFOAM.org                      |
|    \\/     M anipulation  |                                                 |
\*---------------------------------------------------------------------------*/
FoamFile
{
    version     2.0;
    format      ascii;
    class       dictionary;
    location    "system";
    object      controlDict;
}
// * * * * * * * * * * * * * * * * * * * * * * * * * * * * * * * * * * * * * //

application     ihFoam;

startFrom       latestTime;

startTime       0;

stopAt          endTime;

endTime         4;

deltaT          0.001;

writeControl    adjustableRunTime;

writeInterval   0.05;

purgeWrite      0;

writeFormat     ascii;

writePrecision  6;

writeCompression uncompressed;

timeFormat      general;

timePrecision   6;

runTimeModifiable yes;

adjustTimeStep  yes;

maxCo           0.5;
maxAlphaCo      0.5;

maxDeltaT       1;

functions
{
    freeSurface
    {
        type surfaces;
        functionObjectLibs
        (
            "libsampling.so"
        );
        outputControl   outputTime;
        interpolationScheme cellPoint;
        surfaceFormat  raw;
        fields
        (
            alpha1
        );
        surfaces
        (
            topFreeSurface
            {
                type        isoSurface;
                isoField    alpha.water;
                isoValue    0.5;
                interpolate true;
            }
        );
    }
}
// ************************************************************************* //
